 xtb: 6.6.0 (conda-forge)
          07122317083D

 25 29  0     0  0            999 V2000
    1.2538    1.5764    0.7381 C   0  0  0  0  0  0  0  0  0  0  0  0
    2.4714    0.7417    0.3514 O   0  0  0  0  0  0  0  0  0  0  0  0
    2.6548    0.4636   -1.1270 C   0  0  0  0  0  0  0  0  0  0  0  0
    4.0626    0.4269   -1.6899 C   0  0  0  0  0  0  0  0  0  0  0  0
    4.5144    1.5155   -2.4858 O   0  0  0  0  0  0  0  0  0  0  0  0
    3.1735    1.5586   -2.0490 C   0  0  0  0  0  0  0  0  0  0  0  0
    2.6765    2.9776   -1.7527 C   0  0  0  0  0  0  0  0  0  0  0  0
    2.5198    3.3186   -0.3075 C   0  0  0  0  0  0  0  0  0  0  0  0
    1.6560    3.2521    0.8812 C   0  0  0  0  0  0  0  0  0  0  0  0
    0.9746    4.7991    0.7119 C   0  0  0  0  0  0  0  0  0  0  0  0
    0.7268    5.2754   -0.6415 O   0  0  0  0  0  0  0  0  0  0  0  0
    0.2561    4.2007   -1.4004 C   0  0  0  0  0  0  0  0  0  0  0  0
    1.3005    3.1367   -1.3761 C   0  0  0  0  0  0  0  0  0  0  0  0
    0.8544    1.1369    1.6595 H   0  0  0  0  0  0  0  0  0  0  0  0
    0.5110    1.2879   -0.0088 H   0  0  0  0  0  0  0  0  0  0  0  0
    1.9857   -0.2651   -1.5838 H   0  0  0  0  0  0  0  0  0  0  0  0
    4.8389    0.0883   -1.0140 H   0  0  0  0  0  0  0  0  0  0  0  0
    3.1696    3.7746   -2.3060 H   0  0  0  0  0  0  0  0  0  0  0  0
    3.3537    2.7494    0.1199 H   0  0  0  0  0  0  0  0  0  0  0  0
    2.2322    3.3583    1.8114 H   0  0  0  0  0  0  0  0  0  0  0  0
    1.7450    5.5398    1.0091 H   0  0  0  0  0  0  0  0  0  0  0  0
    0.0984    5.0442    1.3186 H   0  0  0  0  0  0  0  0  0  0  0  0
   -0.0460    4.4534   -2.4160 H   0  0  0  0  0  0  0  0  0  0  0  0
   -0.6598    3.8730   -0.8832 H   0  0  0  0  0  0  0  0  0  0  0  0
    0.6966    2.2407   -1.5049 H   0  0  0  0  0  0  0  0  0  0  0  0
  1  2  1  0  0  0  0
  2  3  1  0  0  0  0
  3  4  1  0  0  0  0
  4  5  1  0  0  0  0
  3  6  1  0  0  0  0
  4  6  1  0  0  0  0
  5  6  1  0  0  0  0
  6  7  1  0  0  0  0
  7  8  1  0  0  0  0
  1  9  1  0  0  0  0
  8  9  1  0  0  0  0
  9 10  1  0  0  0  0
 10 11  1  0  0  0  0
 11 12  1  0  0  0  0
  7 13  1  0  0  0  0
  8 13  1  0  0  0  0
 12 13  1  0  0  0  0
  1 14  1  0  0  0  0
  1 15  1  0  0  0  0
  3 16  1  0  0  0  0
  4 17  1  0  0  0  0
  7 18  1  0  0  0  0
  8 19  1  0  0  0  0
  9 20  1  0  0  0  0
 10 21  1  0  0  0  0
 10 22  1  0  0  0  0
 12 23  1  0  0  0  0
 12 24  1  0  0  0  0
 13 25  1  0  0  0  0
M  END
